! Program Version,EnergyPlus, Version 24.1.0-69c052275a
! Output:Variable Objects (Alarm)
Output:Variable,*,Site Outdoor Air Drybulb Temperature,hourly; !- Zone Average [C]
Output:Variable,*,Site Outdoor Air Wetbulb Temperature,hourly; !- Zone Average [C]
Output:Variable,*,Zone Mean Air Temperature,hourly; !- Zone Average [C]
Output:Variable,*,Zone Air System Sensible Heating Rate,hourly; !- HVAC Average [W]
Output:Variable,*,Zone Air System Sensible Cooling Rate,hourly; !- HVAC Average [W]
Output:Variable,*,Zone Ideal Loads Supply Air Total Heating Energy,hourly; !- HVAC Sum [J]
Output:Variable,*,Zone People Occupant Count,hourly; !- Zone Average []
